Circuit: * D:\Electronics-3-project\Circuit 2\circuit2_part1.asc

WARNING: Less than two connections to node Y.  This node is used by A:U5:1.
Direct Newton iteration for .op point succeeded.
Ignoring empty pin current: Ix(u4:3)
Ignoring empty pin current: Ix(u4:3)

Date: Fri May 14 19:34:57 2021
Total elapsed time: 0.106 seconds.

tnom = 27
temp = 27
method = modified trap
totiter = 4209
traniter = 4204
tranpoints = 2095
accept = 1936
rejected = 159
matrix size = 11
fillins = 0
solver = Normal
Matrix Compiler1: 198 bytes object code size  0.1/0.1/[0.0]
Matrix Compiler2: off  [0.0]/0.1/0.0

